gridlabd-4/taxonomy/R5-12470-4.glm
// R5-12470-4.glm 

module powerflow
{
     solver_method NR;
}

object regulator:2421
{ 
     name R5-12-47-4_reg_1; 
     from R5-12-47-4_node_675; 
     to R5-12-47-4_meter_33; 
     phases ABCN; 
     configuration regulator_configuration:2422; 
} 

object regulator_configuration:2422
{ 
     name feeder_reg_cfg; 
     Control OUTPUT_VOLTAGE; 
     band_center 7500.0; 
     band_width 60.0; 
     connect_type WYE_WYE; 
     time_delay 30; 
     raise_taps 16; 
     lower_taps 16; 
     regulation 0.10; 
     tap_pos_A 0; 
     tap_pos_B 0; 
     tap_pos_C 0; 
} 

object capacitor:2417
{ 
     name R5-12-47-4_cap_1; 
     phases ABCN; 
     pt_phase B; 
     parent R5-12-47-4_node_589; 
     phases_connected ABC; 
     control VOLT; 
     voltage_set_high 7300; 
     voltage_set_low 7100; 
     capacitor_A 0.2 MVAr; 
     capacitor_B 0.2 MVAr; 
     capacitor_C 0.2 MVAr; 
     control_level INDIVIDUAL; 
     time_delay 30.0; 
     dwell_time 30.0; 
     cap_nominal_voltage 7200; 
     nominal_voltage 7200; 
} 

object capacitor:2418
{ 
     name R5-12-47-4_cap_2; 
     phases ABCN; 
     pt_phase B; 
     parent R5-12-47-4_node_538; 
     phases_connected ABC; 
     control VOLT; 
     voltage_set_high 7300; 
     voltage_set_low 7100; 
     capacitor_A 0.3 MVAr; 
     capacitor_B 0.3 MVAr; 
     capacitor_C 0.3 MVAr; 
     control_level INDIVIDUAL; 
     time_delay 30.0; 
     dwell_time 30.0; 
     cap_nominal_voltage 7200; 
     nominal_voltage 7200; 
} 

object capacitor:2419
{ 
     name R5-12-47-4_cap_3; 
     phases ABCN; 
     pt_phase B; 
     parent R5-12-47-4_node_352; 
     phases_connected ABC; 
     control VOLT; 
     voltage_set_high 7300; 
     voltage_set_low 7100; 
     capacitor_A 0.3 MVAr; 
     capacitor_B 0.3 MVAr; 
     capacitor_C 0.3 MVAr; 
     control_level INDIVIDUAL; 
     time_delay 30.0; 
     dwell_time 30.0; 
     cap_nominal_voltage 7200; 
     nominal_voltage 7200; 
} 

object fuse:2278
{ 
     name R5-12-47-4_fuse_1; 
     phases AN; 
     from R5-12-47-4_node_534; 
     to R5-12-47-4_node_533; 
     current_limit 65; 
     status CLOSED; 
} 

object fuse:2279
{ 
     name R5-12-47-4_fuse_2; 
     phases ABCN; 
     from R5-12-47-4_node_228; 
     to R5-12-47-4_node_227; 
     current_limit 8; 
     status CLOSED; 
} 

object fuse:2280
{ 
     name R5-12-47-4_fuse_3; 
     phases ABCN; 
     from R5-12-47-4_node_280; 
     to R5-12-47-4_node_281; 
     current_limit 25; 
     status CLOSED; 
} 

object fuse:2281
{ 
     name R5-12-47-4_fuse_4; 
     phases ABCN; 
     from R5-12-47-4_node_288; 
     to R5-12-47-4_node_289; 
     current_limit 50; 
     status CLOSED; 
} 

object fuse:2282
{ 
     name R5-12-47-4_fuse_5; 
     phases ABCN; 
     from R5-12-47-4_node_258; 
     to R5-12-47-4_node_257; 
     current_limit 15; 
     status CLOSED; 
} 

object fuse:2283
{ 
     name R5-12-47-4_fuse_6; 
     phases ABCN; 
     from R5-12-47-4_node_261; 
     to R5-12-47-4_node_260; 
     current_limit 7; 
     status CLOSED; 
} 

object fuse:2284
{ 
     name R5-12-47-4_fuse_7; 
     phases ABCN; 
     from R5-12-47-4_node_582; 
     to R5-12-47-4_node_584; 
     current_limit 160; 
     status CLOSED; 
} 

object fuse:2285
{ 
     name R5-12-47-4_fuse_8; 
     phases AN; 
     from R5-12-47-4_node_530; 
     to R5-12-47-4_node_534; 
     current_limit 100; 
     status CLOSED; 
} 

object fuse:2286
{ 
     name R5-12-47-4_fuse_9; 
     phases CN; 
     from R5-12-47-4_node_346; 
     to R5-12-47-4_node_344; 
     current_limit 100; 
     status CLOSED; 
} 

object fuse:2287
{ 
     name R5-12-47-4_fuse_10; 
     phases ABCN; 
     from R5-12-47-4_node_374; 
     to R5-12-47-4_node_372; 
     current_limit 100; 
     status CLOSED; 
} 

object fuse:2288
{ 
     name R5-12-47-4_fuse_11; 
     phases ABCN; 
     from R5-12-47-4_node_222; 
     to R5-12-47-4_node_221; 
     current_limit 100; 
     status CLOSED; 
} 

object fuse:2289
{ 
     name R5-12-47-4_fuse_12; 
     phases ABCN; 
     from R5-12-47-4_node_211; 
     to R5-12-47-4_node_210; 
     current_limit 100; 
     status CLOSED; 
} 

object fuse:2290
{ 
     name R5-12-47-4_fuse_13; 
     phases ABCN; 
     from R5-12-47-4_node_176; 
     to R5-12-47-4_node_7; 
     current_limit 12; 
     status CLOSED; 
} 

object fuse:2291
{ 
     name R5-12-47-4_fuse_14; 
     phases ABCN; 
     from R5-12-47-4_node_487; 
     to R5-12-47-4_node_471; 
     current_limit 100; 
     status CLOSED; 
} 

object fuse:2292
{ 
     name R5-12-47-4_fuse_15; 
     phases ABCN; 
     from R5-12-47-4_node_326; 
     to R5-12-47-4_node_324; 
     current_limit 50; 
     status CLOSED; 
} 

object fuse:2293
{ 
     name R5-12-47-4_fuse_16; 
     phases ABCN; 
     from R5-12-47-4_node_313; 
     to R5-12-47-4_node_314; 
     current_limit 12; 
     status CLOSED; 
} 

object fuse:2294
{ 
     name R5-12-47-4_fuse_17; 
     phases ABCN; 
     from R5-12-47-4_node_238; 
     to R5-12-47-4_node_239; 
     current_limit 5; 
     status CLOSED; 
} 

object fuse:2295
{ 
     name R5-12-47-4_fuse_18; 
     phases ABCN; 
     from R5-12-47-4_node_8; 
     to R5-12-47-4_node_579; 
     current_limit 150; 
     status CLOSED; 
} 

object fuse:2296
{ 
     name R5-12-47-4_fuse_19; 
     phases CN; 
     from R5-12-47-4_node_137; 
     to R5-12-47-4_node_133; 
     current_limit 50; 
     status CLOSED; 
} 

object fuse:2297
{ 
     name R5-12-47-4_fuse_20; 
     phases AN; 
     from R5-12-47-4_node_137; 
     to R5-12-47-4_node_136; 
     current_limit 65; 
     status CLOSED; 
} 

object fuse:2298
{ 
     name R5-12-47-4_fuse_21; 
     phases BN; 
     from R5-12-47-4_node_137; 
     to R5-12-47-4_node_135; 
     current_limit 65; 
     status CLOSED; 
} 

object fuse:2299
{ 
     name R5-12-47-4_fuse_22; 
     phases ABCN; 
     from R5-12-47-4_node_251; 
     to R5-12-47-4_node_252; 
     current_limit 30; 
     status CLOSED; 
} 

object fuse:2300
{ 
     name R5-12-47-4_fuse_23; 
     phases ABCN; 
     from R5-12-47-4_node_247; 
     to R5-12-47-4_node_248; 
     current_limit 15; 
     status CLOSED; 
} 

object fuse:2301
{ 
     name R5-12-47-4_fuse_24; 
     phases AN; 
     from R5-12-47-4_node_132; 
     to R5-12-47-4_node_129; 
     current_limit 65; 
     status CLOSED; 
} 

object fuse:2302
{ 
     name R5-12-47-4_fuse_25; 
     phases BN; 
     from R5-12-47-4_node_132; 
     to R5-12-47-4_node_130; 
     current_limit 65; 
     status CLOSED; 
} 

object fuse:2303
{ 
     name R5-12-47-4_fuse_26; 
     phases CN; 
     from R5-12-47-4_node_132; 
     to R5-12-47-4_node_131; 
     current_limit 50; 
     status CLOSED; 
} 

object fuse:2304
{ 
     name R5-12-47-4_fuse_27; 
     phases AN; 
     from R5-12-47-4_node_114; 
     to R5-12-47-4_node_115; 
     current_limit 65; 
     status CLOSED; 
} 

object fuse:2305
{ 
     name R5-12-47-4_fuse_28; 
     phases BN; 
     from R5-12-47-4_node_114; 
     to R5-12-47-4_node_116; 
     current_limit 65; 
     status CLOSED; 
} 

object fuse:2306
{ 
     name R5-12-47-4_fuse_29; 
     phases CN; 
     from R5-12-47-4_node_114; 
     to R5-12-47-4_node_118; 
     current_limit 65; 
     status CLOSED; 
} 

object fuse:2307
{ 
     name R5-12-47-4_fuse_30; 
     phases AN; 
     from R5-12-47-4_node_99; 
     to R5-12-47-4_node_98; 
     current_limit 13; 
     status CLOSED; 
} 

object fuse:2308
{ 
     name R5-12-47-4_fuse_31; 
     phases BN; 
     from R5-12-47-4_node_99; 
     to R5-12-47-4_node_97; 
     current_limit 50; 
     status CLOSED; 
} 

object fuse:2309
{ 
     name R5-12-47-4_fuse_32; 
     phases CN; 
     from R5-12-47-4_node_99; 
     to R5-12-47-4_node_95; 
     current_limit 65; 
     status CLOSED; 
} 

object fuse:2310
{ 
     name R5-12-47-4_fuse_33; 
     phases ABCN; 
     from R5-12-47-4_node_94; 
     to R5-12-47-4_node_93; 
     current_limit 100; 
     status CLOSED; 
} 

object fuse:2311
{ 
     name R5-12-47-4_fuse_34; 
     phases AN; 
     from R5-12-47-4_node_58; 
     to R5-12-47-4_node_57; 
     current_limit 65; 
     status CLOSED; 
} 

object fuse:2312
{ 
     name R5-12-47-4_fuse_35; 
     phases BN; 
     from R5-12-47-4_node_58; 
     to R5-12-47-4_node_56; 
     current_limit 65; 
     status CLOSED; 
} 

object fuse:2313
{ 
     name R5-12-47-4_fuse_36; 
     phases CN; 
     from R5-12-47-4_node_58; 
     to R5-12-47-4_node_54; 
     current_limit 65; 
     status CLOSED; 
} 

object fuse:2314
{ 
     name R5-12-47-4_fuse_37; 
     phases AN; 
     from R5-12-47-4_node_53; 
     to R5-12-47-4_node_50; 
     current_limit 50; 
     status CLOSED; 
} 

object fuse:2315
{ 
     name R5-12-47-4_fuse_38; 
     phases BN; 
     from R5-12-47-4_node_53; 
     to R5-12-47-4_node_51; 
     current_limit 50; 
     status CLOSED; 
} 

object fuse:2316
{ 
     name R5-12-47-4_fuse_39; 
     phases CN; 
     from R5-12-47-4_node_53; 
     to R5-12-47-4_node_52; 
     current_limit 65; 
     status CLOSED; 
} 

object fuse:2317
{ 
     name R5-12-47-4_fuse_40; 
     phases AN; 
     from R5-12-47-4_node_19; 
     to R5-12-47-4_node_18; 
     current_limit 50; 
     status CLOSED; 
} 

object fuse:2318
{ 
     name R5-12-47-4_fuse_41; 
     phases BN; 
     from R5-12-47-4_node_19; 
     to R5-12-47-4_node_17; 
     current_limit 20; 
     status CLOSED; 
} 

object fuse:2319
{ 
     name R5-12-47-4_fuse_42; 
     phases CN; 
     from R5-12-47-4_node_19; 
     to R5-12-47-4_node_15; 
     current_limit 65; 
     status CLOSED; 
} 

object fuse:2320
{ 
     name R5-12-47-4_fuse_43; 
     phases ABCN; 
     from R5-12-47-4_node_14; 
     to R5-12-47-4_node_13; 
     current_limit 20; 
     status CLOSED; 
} 

object fuse:2321
{ 
     name R5-12-47-4_fuse_44; 
     phases ABCN; 
     from R5-12-47-4_node_203; 
     to R5-12-47-4_node_202; 
     current_limit 15; 
     status CLOSED; 
} 

object fuse:2322
{ 
     name R5-12-47-4_fuse_45; 
     phases AN; 
     from R5-12-47-4_node_621; 
     to R5-12-47-4_node_622; 
     current_limit 65; 
     status CLOSED; 
} 

object fuse:2323
{ 
     name R5-12-47-4_fuse_46; 
     phases CN; 
     from R5-12-47-4_node_620; 
     to R5-12-47-4_node_619; 
     current_limit 65; 
     status CLOSED; 
} 

object fuse:2324
{ 
     name R5-12-47-4_fuse_47; 
     phases CN; 
     from R5-12-47-4_node_634; 
     to R5-12-47-4_node_636; 
     current_limit 65; 
     status CLOSED; 
} 

object fuse:2325
{ 
     name R5-12-47-4_fuse_48; 
     phases BN; 
     from R5-12-47-4_node_634; 
     to R5-12-47-4_node_635; 
     current_limit 65; 
     status CLOSED; 
} 

object fuse:2326
{ 
     name R5-12-47-4_fuse_49; 
     phases AN; 
     from R5-12-47-4_node_634; 
     to R5-12-47-4_node_633; 
     current_limit 65; 
     status CLOSED; 
} 

object fuse:2327
{ 
     name R5-12-47-4_fuse_50; 
     phases CN; 
     from R5-12-47-4_node_578; 
     to R5-12-47-4_node_580; 
     current_limit 15; 
     status CLOSED; 
} 

object fuse:2328
{ 
     name R5-12-47-4_fuse_51; 
     phases ABCN; 
     from R5-12-47-4_node_578; 
     to R5-12-47-4_node_571; 
     current_limit 30; 
     status CLOSED; 
} 

object fuse:2329
{ 
     name R5-12-47-4_fuse_52; 
     phases ABCN; 
     from R5-12-47-4_node_579; 
     to R5-12-47-4_node_570; 
     current_limit 50; 
     status CLOSED; 
} 

object fuse:2330
{ 
     name R5-12-47-4_fuse_53; 
     phases ABCN; 
     from R5-12-47-4_node_562; 
     to R5-12-47-4_node_558; 
     current_limit 65; 
     status CLOSED; 
} 

object fuse:2331
{ 
     name R5-12-47-4_fuse_54; 
     phases ABCN; 
     from R5-12-47-4_node_560; 
     to R5-12-47-4_node_557; 
     current_limit 65; 
     status CLOSED; 
} 

object fuse:2332
{ 
     name R5-12-47-4_fuse_55; 
     phases ABCN; 
     from R5-12-47-4_node_562; 
     to R5-12-47-4_node_564; 
     current_limit 50; 
     status CLOSED; 
} 

object fuse:2333
{ 
     name R5-12-47-4_fuse_56; 
     phases CN; 
     from R5-12-47-4_node_562; 
     to R5-12-47-4_node_563; 
     current_limit 10; 
     status CLOSED; 
} 

object fuse:2334
{ 
     name R5-12-47-4_fuse_57; 
     phases CN; 
     from R5-12-47-4_node_593; 
     to R5-12-47-4_node_597; 
     current_limit 65; 
     status CLOSED; 
} 

object fuse:2335
{ 
     name R5-12-47-4_fuse_58; 
     phases BN; 
     from R5-12-47-4_node_594; 
     to R5-12-47-4_node_598; 
     current_limit 65; 
     status CLOSED; 
} 

object fuse:2336
{ 
     name R5-12-47-4_fuse_59; 
     phases AN; 
     from R5-12-47-4_node_595; 
     to R5-12-47-4_node_601; 
     current_limit 65; 
     status CLOSED; 
} 

object fuse:2337
{ 
     name R5-12-47-4_fuse_60; 
     phases ABCN; 
     from R5-12-47-4_node_27; 
     to R5-12-47-4_node_78; 
     current_limit 65; 
     status CLOSED; 
} 

object fuse:2338
{ 
     name R5-12-47-4_fuse_61; 
     phases AN; 
     from R5-12-47-4_node_78; 
     to R5-12-47-4_node_77; 
     current_limit 65; 
     status CLOSED; 
} 

object fuse:2339
{ 
     name R5-12-47-4_fuse_62; 
     phases AN; 
     from R5-12-47-4_node_68; 
     to R5-12-47-4_node_67; 
     current_limit 65; 
     status CLOSED; 
} 

object fuse:2340
{ 
     name R5-12-47-4_fuse_63; 
     phases BN; 
     from R5-12-47-4_node_162; 
     to R5-12-47-4_node_159; 
     current_limit 65; 
     status CLOSED; 
} 

object fuse:2341
{ 
     name R5-12-47-4_fuse_64; 
     phases CN; 
     from R5-12-47-4_node_162; 
     to R5-12-47-4_node_161; 
     current_limit 65; 
     status CLOSED; 
} 

object fuse:2342
{ 
     name R5-12-47-4_fuse_65; 
     phases CN; 
     from R5-12-47-4_node_162; 
     to R5-12-47-4_node_160; 
     current_limit 65; 
     status CLOSED; 
} 

object fuse:2343
{ 
     name R5-12-47-4_fuse_66; 
     phases CN; 
     from R5-12-47-4_node_72; 
     to R5-12-47-4_node_70; 
     current_limit 65; 
     status CLOSED; 
} 

object fuse:2344
{ 
     name R5-12-47-4_fuse_67; 
     phases CN; 
     from R5-12-47-4_node_72; 
     to R5-12-47-4_node_71; 
     current_limit 65; 
     status CLOSED; 
} 

object fuse:2345
{ 
     name R5-12-47-4_fuse_68; 
     phases BN; 
     from R5-12-47-4_node_72; 
     to R5-12-47-4_node_69; 
     current_limit 65; 
     status CLOSED; 
} 

object fuse:2346
{ 
     name R5-12-47-4_fuse_69; 
     phases AN; 
     from R5-12-47-4_node_121; 
     to R5-12-47-4_node_123; 
     current_limit 65; 
     status CLOSED; 
} 

object fuse:2347
{ 
     name R5-12-47-4_fuse_70; 
     phases CN; 
     from R5-12-47-4_node_211; 
     to R5-12-47-4_node_212; 
     current_limit 65; 
     status CLOSED; 
} 

object fuse:2348
{ 
     name R5-12-47-4_fuse_71; 
     phases CN; 
     from R5-12-47-4_node_303; 
     to R5-12-47-4_node_304; 
     current_limit 65; 
     status CLOSED; 
} 

object fuse:2349
{ 
     name R5-12-47-4_fuse_72; 
     phases CN; 
     from R5-12-47-4_node_295; 
     to R5-12-47-4_node_296; 
     current_limit 65; 
     status CLOSED; 
} 

object fuse:2350
{ 
     name R5-12-47-4_fuse_73; 
     phases CN; 
     from R5-12-47-4_node_360; 
     to R5-12-47-4_node_359; 
     current_limit 65; 
     status CLOSED; 
} 

object fuse:2351
{ 
     name R5-12-47-4_fuse_74; 
     phases CN; 
     from R5-12-47-4_node_360; 
     to R5-12-47-4_node_358; 
     current_limit 65; 
     status CLOSED; 
} 

object fuse:2352
{ 
     name R5-12-47-4_fuse_75; 
     phases BN; 
     from R5-12-47-4_node_363; 
     to R5-12-47-4_node_361; 
     current_limit 65; 
     status CLOSED; 
} 

object fuse:2353
{ 
     name R5-12-47-4_fuse_76; 
     phases BN; 
     from R5-12-47-4_node_364; 
     to R5-12-47-4_node_362; 
     current_limit 65; 
     status CLOSED; 
} 

object fuse:2354
{ 
     name R5-12-47-4_fuse_77; 
     phases BN; 
     from R5-12-47-4_node_121; 
     to R5-12-47-4_node_122; 
     current_limit 50; 
     status CLOSED; 
} 

object fuse:2355
{ 
     name R5-12-47-4_fuse_78; 
     phases CN; 
     from R5-12-47-4_node_121; 
     to R5-12-47-4_node_120; 
     current_limit 50; 
     status CLOSED; 
} 

object fuse:2356
{ 
     name R5-12-47-4_fuse_79; 
     phases ABCN; 
     from R5-12-47-4_node_171; 
     to R5-12-47-4_node_172; 
     current_limit 15; 
     status CLOSED; 
} 

object fuse:2357
{ 
     name R5-12-47-4_fuse_80; 
     phases CN; 
     from R5-12-47-4_node_179; 
     to R5-12-47-4_node_178; 
     current_limit 65; 
     status CLOSED; 
} 

object fuse:2358
{ 
     name R5-12-47-4_fuse_81; 
     phases BN; 
     from R5-12-47-4_node_89; 
     to R5-12-47-4_node_671; 
     current_limit 65; 
     status CLOSED; 
} 

object fuse:2359
{ 
     name R5-12-47-4_fuse_82; 
     phases ABCN; 
     from R5-12-47-4_node_196; 
     to R5-12-47-4_node_195; 
     current_limit 4; 
     status CLOSED; 
} 

object fuse:2360
{ 
     name R5-12-47-4_fuse_83; 
     phases AN; 
     from R5-12-47-4_node_509; 
     to R5-12-47-4_node_507; 
     current_limit 65; 
     status CLOSED; 
} 

object fuse:2361
{ 
     name R5-12-47-4_fuse_84; 
     phases BN; 
     from R5-12-47-4_node_509; 
     to R5-12-47-4_node_505; 
     current_limit 65; 
     status CLOSED; 
} 

object fuse:2362
{ 
     name R5-12-47-4_fuse_85; 
     phases CN; 
     from R5-12-47-4_node_501; 
     to R5-12-47-4_node_500; 
     current_limit 40; 
     status CLOSED; 
} 

object fuse:2363
{ 
     name R5-12-47-4_fuse_86; 
     phases CN; 
     from R5-12-47-4_node_509; 
     to R5-12-47-4_node_508; 
     current_limit 65; 
     status CLOSED; 
} 

object fuse:2364
{ 
     name R5-12-47-4_fuse_87; 
     phases CN; 
     from R5-12-47-4_node_514; 
     to R5-12-47-4_node_513; 
     current_limit 65; 
     status CLOSED; 
} 

object fuse:2365
{ 
     name R5-12-47-4_fuse_88; 
     phases BN; 
     from R5-12-47-4_node_514; 
     to R5-12-47-4_node_511; 
     current_limit 65; 
     status CLOSED; 
} 

object fuse:2366
{ 
     name R5-12-47-4_fuse_89; 
     phases AN; 
     from R5-12-47-4_node_514; 
     to R5-12-47-4_node_512; 
     current_limit 65; 
     status CLOSED; 
} 

object fuse:2367
{ 
     name R5-12-47-4_fuse_90; 
     phases AN; 
     from R5-12-47-4_node_455; 
     to R5-12-47-4_node_454; 
     current_limit 65; 
     status CLOSED; 
} 

object fuse:2368
{ 
     name R5-12-47-4_fuse_91; 
     phases AN; 
     from R5-12-47-4_node_457; 
     to R5-12-47-4_node_458; 
     current_limit 65; 
     status CLOSED; 
} 

object fuse:2369
{ 
     name R5-12-47-4_fuse_92; 
     phases BN; 
     from R5-12-47-4_node_455; 
     to R5-12-47-4_node_672; 
     current_limit 65; 
     status CLOSED; 
} 

object fuse:2370
{ 
     name R5-12-47-4_fuse_93; 
     phases CN; 
     from R5-12-47-4_node_420; 
     to R5-12-47-4_node_419; 
     current_limit 65; 
     status CLOSED; 
} 

object fuse:2371
{ 
     name R5-12-47-4_fuse_94; 
     phases CN; 
     from R5-12-47-4_node_420; 
     to R5-12-47-4_node_417; 
     current_limit 65; 
     status CLOSED; 
} 

object fuse:2372
{ 
     name R5-12-47-4_fuse_95; 
     phases BN; 
     from R5-12-47-4_node_413; 
     to R5-12-47-4_node_412; 
     current_limit 65; 
     status CLOSED; 
} 

object fuse:2373
{ 
     name R5-12-47-4_fuse_96; 
     phases BN; 
     from R5-12-47-4_node_413; 
     to R5-12-47-4_node_414; 
     current_limit 65; 
     status CLOSED; 
} 

object fuse:2374
{ 
     name R5-12-47-4_fuse_97; 
     phases AN; 
     from R5-12-47-4_node_245; 
     to R5-12-47-4_node_243; 
     current_limit 65; 
     status CLOSED; 
} 

object fuse:2375
{ 
     name R5-12-47-4_fuse_98; 
     phases AN; 
     from R5-12-47-4_node_264; 
     to R5-12-47-4_node_265; 
     current_limit 65; 
     status CLOSED; 
} 

object fuse:2376
{ 
     name R5-12-47-4_fuse_99; 
     phases CN; 
     from R5-12-47-4_node_450; 
     to R5-12-47-4_node_452; 
     current_limit 40; 
     status CLOSED; 
} 

object fuse:2377
{ 
     name R5-12-47-4_fuse_100; 
     phases BN; 
     from R5-12-47-4_node_427; 
     to R5-12-47-4_node_426; 
     current_limit 65; 
     status CLOSED; 
} 

object fuse:2378
{ 
     name R5-12-47-4_fuse_101; 
     phases BN; 
     from R5-12-47-4_node_427; 
     to R5-12-47-4_node_423; 
     current_limit 65; 
     status CLOSED; 
} 

object fuse:2379
{ 
     name R5-12-47-4_fuse_102; 
     phases BN; 
     from R5-12-47-4_node_418; 
     to R5-12-47-4_node_416; 
     current_limit 65; 
     status CLOSED; 
} 

object fuse:2380
{ 
     name R5-12-47-4_fuse_103; 
     phases AN; 
     from R5-12-47-4_node_418; 
     to R5-12-47-4_node_415; 
     current_limit 65; 
     status CLOSED; 
} 

object fuse:2381
{ 
     name R5-12-47-4_fuse_104; 
     phases AN; 
     from R5-12-47-4_node_401; 
     to R5-12-47-4_node_399; 
     current_limit 65; 
     status CLOSED; 
} 

object fuse:2382
{ 
     name R5-12-47-4_fuse_105; 
     phases BN; 
     from R5-12-47-4_node_398; 
     to R5-12-47-4_node_393; 
     current_limit 40; 
     status CLOSED; 
} 

object fuse:2383
{ 
     name R5-12-47-4_fuse_106; 
     phases BN; 
     from R5-12-47-4_node_490; 
     to R5-12-47-4_node_492; 
     current_limit 15; 
     status CLOSED; 
} 

object fuse:2384
{ 
     name R5-12-47-4_fuse_107; 
     phases BN; 
     from R5-12-47-4_node_480; 
     to R5-12-47-4_node_477; 
     current_limit 65; 
     status CLOSED; 
} 

object fuse:2385
{ 
     name R5-12-47-4_fuse_108; 
     phases CN; 
     from R5-12-47-4_node_587; 
     to R5-12-47-4_node_590; 
     current_limit 65; 
     status CLOSED; 
} 

object fuse:2386
{ 
     name R5-12-47-4_fuse_109; 
     phases AN; 
     from R5-12-47-4_node_588; 
     to R5-12-47-4_node_591; 
     current_limit 65; 
     status CLOSED; 
} 

object fuse:2387
{ 
     name R5-12-47-4_fuse_110; 
     phases ABCN; 
     from R5-12-47-4_node_220; 
     to R5-12-47-4_node_217; 
     current_limit 140; 
     status CLOSED; 
} 

object line_configuration:18
{ 
     conductor_A underground_line_conductor:2; 
     conductor_B underground_line_conductor:2; 
     conductor_C underground_line_conductor:2; 
     conductor_N underground_line_conductor:2; 
     spacing line_spacing:13; 
} 

object line_configuration:19
{ 
     conductor_C underground_line_conductor:3; 
     conductor_N underground_line_conductor:3; 
     spacing line_spacing:14; 
} 

object line_configuration:20
{ 
     conductor_B underground_line_conductor:3; 
     conductor_N underground_line_conductor:3; 
     spacing line_spacing:15; 
} 

object line_configuration:21
{ 
     conductor_A overhead_line_conductor:4; 
     conductor_B overhead_line_conductor:4; 
     conductor_C overhead_line_conductor:4; 
     conductor_N overhead_line_conductor:4; 
     spacing line_spacing:13; 
} 

object line_configuration:22
{ 
     conductor_A underground_line_conductor:3; 
     conductor_N underground_line_conductor:3; 
     spacing line_spacing:16; 
} 

object line_configuration:23
{ 
     conductor_A overhead_line_conductor:5; 
     conductor_N overhead_line_conductor:5; 
     spacing line_spacing:16; 
} 

object line_configuration:24
{ 
     conductor_A underground_line_conductor:6; 
     conductor_B underground_line_conductor:6; 
     conductor_C underground_line_conductor:6; 
     conductor_N underground_line_conductor:6; 
     spacing line_spacing:13; 
} 

object line_configuration:25
{ 
     conductor_A underground_line_conductor:3; 
     conductor_B underground_line_conductor:3; 
     conductor_C underground_line_conductor:3; 
     conductor_N underground_line_conductor:3; 
     spacing line_spacing:13; 
} 

object line_configuration:26
{ 
     conductor_A overhead_line_conductor:7; 
     conductor_B overhead_line_conductor:7; 
     conductor_C overhead_line_conductor:7; 
     conductor_N overhead_line_conductor:7; 
     spacing line_spacing:13; 
} 

object line_configuration:27
{ 
     conductor_A overhead_line_conductor:4; 
     conductor_N overhead_line_conductor:4; 
     spacing line_spacing:16; 
} 

object line_configuration:28
{ 
     conductor_A overhead_line_conductor:4; 
     conductor_N overhead_line_conductor:4; 
     spacing line_spacing:16; 
} 

object line_configuration:29
{ 
     conductor_A overhead_line_conductor:5; 
     conductor_B overhead_line_conductor:5; 
     conductor_C overhead_line_conductor:5; 
     conductor_N overhead_line_conductor:5; 
     spacing line_spacing:13; 
} 

object line_configuration:30
{ 
     conductor_C overhead_line_conductor:4; 
     conductor_N overhead_line_conductor:4; 
     spacing line_spacing:14; 
} 

object line_configuration:31
{ 
     conductor_A overhead_line_conductor:8; 
     conductor_B overhead_line_conductor:8; 
     conductor_C overhead_line_conductor:8; 
     conductor_N overhead_line_conductor:8; 
     spacing line_spacing:13; 
} 

object line_configuration:32
{ 
     conductor_A overhead_line_conductor:9; 
     conductor_B overhead_line_conductor:9; 
     conductor_C overhead_line_conductor:9; 
     conductor_N overhead_line_conductor:9; 
     spacing line_spacing:13; 
} 

object line_configuration:33
{ 
     conductor_A overhead_line_conductor:4; 
     conductor_B overhead_line_conductor:4; 
     conductor_C overhead_line_conductor:4; 
     conductor_N overhead_line_conductor:4; 
     spacing line_spacing:13; 
} 

object line_configuration:34
{ 
     conductor_C overhead_line_conductor:9; 
     conductor_N overhead_line_conductor:9; 
     spacing line_spacing:14; 
} 

object line_configuration:35
{ 
     conductor_B overhead_line_conductor:4; 
     conductor_C overhead_line_conductor:4; 
     conductor_N overhead_line_conductor:4; 
     spacing line_spacing:17; 
} 

object line_configuration:36
{ 
     conductor_A overhead_line_conductor:10; 
     conductor_B overhead_line_conductor:10; 
     conductor_C overhead_line_conductor:10; 
     conductor_N overhead_line_conductor:10; 
     spacing line_spacing:13; 
} 

object line_configuration:37
{ 
     conductor_A overhead_line_conductor:11; 
     conductor_B overhead_line_conductor:11; 
     conductor_C overhead_line_conductor:11; 
     conductor_N overhead_line_conductor:11; 
     spacing line_spacing:13; 
} 

object line_configuration:38
{ 
     conductor_A overhead_line_conductor:8; 
     conductor_N overhead_line_conductor:8; 
     spacing line_spacing:16; 
} 

object line_configuration:39
{ 
     conductor_B overhead_line_conductor:8; 
     conductor_N overhead_line_conductor:8; 
     spacing line_spacing:15; 
} 

object line_configuration:40
{ 
     conductor_C overhead_line_conductor:8; 
     conductor_N overhead_line_conductor:8; 
     spacing line_spacing:14; 
} 

object line_configuration:41
{ 
     conductor_C overhead_line_conductor:12; 
     conductor_N overhead_line_conductor:12; 
     spacing line_spacing:14; 
} 

object line_configuration:42
{ 
     conductor_A overhead_line_conductor:4; 
     conductor_N overhead_line_conductor:4; 
     spacing line_spacing:16; 
} 

object line_configuration:43
{ 
     conductor_B overhead_line_conductor:4; 
     conductor_N overhead_line_conductor:4; 
     spacing line_spacing:15; 
} 

object line_spacing:13
{ 
     distance_AB 48.0 in; 
     distance_BC 48.0 in; 
     distance_AC 48.0 in; 
     distance_AN 36.0 in; 
     distance_BN 36.0 in; 
     distance_CN 36.0 in; 
} 

object line_spacing:14
{ 
     distance_CN 36.0 in; 
} 

object line_spacing:15
{ 
     distance_BN 36.0 in; 
} 

object line_spacing:16
{ 
     distance_AN 36.0 in; 
} 

object line_spacing:17
{ 
     distance_BC 48.0 in; 
     distance_BN 36.0 in; 
     distance_CN 36.0 in; 
} 

object load:718
{ 
     name R5-12-47-4_load_1; 
     parent R5-12-47-4_meter_1; 
     phases ABCN; 
     voltage_A 7200+0.0j; 
     voltage_B -3600-6235j; 
     voltage_C -3600+6235j; 
     constant_power_A 13428.2072+8185.1193j; 
     constant_power_B 13903.9747+8434.2545j; 
     constant_power_C 13362.894+8138.4445j; 
     nominal_voltage 7200; 
     load_class C; 
} 

object load:719
{ 
     name R5-12-47-4_load_2; 
     parent R5-12-47-4_meter_2; 
     phases ABCN; 
     voltage_A 7200+0.0j; 
     voltage_B -3600-6235j; 
     voltage_C -3600+6235j; 
     constant_power_A 17234.9204+10505.4888j; 
     constant_power_B 17845.5615+10825.2504j; 
     constant_power_C 17151.0919+10445.5823j; 
     nominal_voltage 7200; 
     load_class C; 
} 

object load:720
{ 
     name R5-12-47-4_load_3; 
     parent R5-12-47-4_meter_3; 
     phases CN; 
     voltage_C -3600+6235j; 
     constant_power_C 30000+15000j; 
     nominal_voltage 7200; 
     load_class C; 
} 

object load:721
{ 
     name R5-12-47-4_load_4; 
     parent R5-12-47-4_meter_4; 
     phases ABCN; 
     voltage_A 7200+0.0j; 
     voltage_B -3600-6235j; 
     voltage_C -3600+6235j; 
     constant_power_A 70000+35000j; 
     constant_power_B 70000+35000j; 
     constant_power_C 70000+35000j; 
     nominal_voltage 7200; 
     load_class C; 
} 

object load:722
{ 
     name R5-12-47-4_load_5; 
     parent R5-12-47-4_meter_5; 
     phases ABCN; 
     voltage_A 7200+0.0j; 
     voltage_B -3600-6235j; 
     voltage_C -3600+6235j; 
     constant_power_A 100000+50000j; 
     constant_power_B 100000+50000j; 
     constant_power_C 100000+50000j; 
     nominal_voltage 7200; 
     load_class C; 
} 

object load:723
{ 
     name R5-12-47-4_load_6; 
     parent R5-12-47-4_meter_6; 
     phases CN; 
     voltage_C -3600+6235j; 
     constant_power_C 20000+10000j; 
     nominal_voltage 7200; 
     load_class C; 
} 

object load:724
{ 
     name R5-12-47-4_load_7; 
     parent R5-12-47-4_meter_7; 
     phases ABCN; 
     voltage_A 7200+0.0j; 
     voltage_B -3600-6235j; 
     voltage_C -3600+6235j; 
     constant_power_A 135000+67500j; 
     constant_power_B 135000+67500j; 
     constant_power_C 135000+67500j; 
     nominal_voltage 7200; 
     load_class C; 
} 

object load:725
{ 
     name R5-12-47-4_load_8; 
     parent R5-12-47-4_meter_8; 
     phases ABCN; 
     voltage_A 7200+0.0j; 
     voltage_B -3600-6235j; 
     voltage_C -3600+6235j; 
     constant_power_A 135000+67500j; 
     constant_power_B 135000+67500j; 
     constant_power_C 135000+67500j; 
     nominal_voltage 7200; 
     load_class C; 
} 

object load:726
{ 
     name R5-12-47-4_load_9; 
     parent R5-12-47-4_meter_9; 
     phases ABCN; 
     voltage_A 7200+0.0j; 
     voltage_B -3600-6235j; 
     voltage_C -3600+6235j; 
     constant_power_A 5595.0863+3410.4664j; 
     constant_power_B 5793.3228+3514.2727j; 
     constant_power_C 5567.8725+3391.0185j; 
     nominal_voltage 7200; 
     load_class C; 
} 

object load:727
{ 
     name R5-12-47-4_load_10; 
     parent R5-12-47-4_meter_10; 
     phases ABCN; 
     voltage_A 7200+0.0j; 
     voltage_B -3600-6235j; 
     voltage_C -3600+6235j; 
     constant_power_A 39766.2023+24239.3573j; 
     constant_power_B 41175.1371+24977.1445j; 
     constant_power_C 39572.7844+24101.1348j; 
     nominal_voltage 7200; 
     load_class C; 
} 

object load:728
{ 
     name R5-12-47-4_load_11; 
     parent R5-12-47-4_meter_11; 
     phases ABCN; 
     voltage_A 7200+0.0j; 
     voltage_B -3600-6235j; 
     voltage_C -3600+6235j; 
     constant_power_A 8392.6295+5115.6996j; 
     constant_power_B 8689.9842+5271.4091j; 
     constant_power_C 8351.8088+5086.5278j; 
     nominal_voltage 7200; 
     load_class C; 
} 

object load:729
{ 
     name R5-12-47-4_load_12; 
     parent R5-12-47-4_meter_12; 
     phases CN; 
     voltage_C -3600+6235j; 
     constant_power_C 30000+15000j; 
     nominal_voltage 7200; 
     load_class C; 
} 

object load:730
{ 
     name R5-12-47-4_load_13; 
     parent R5-12-47-4_meter_13; 
     phases ABCN; 
     voltage_A 7200+0.0j; 
     voltage_B -3600-6235j; 
     voltage_C -3600+6235j; 
     constant_power_A 10000+5000j; 
     constant_power_B 10000+5000j; 
     constant_power_C 10000+5000j; 
     nominal_voltage 7200; 
     load_class C; 
} 

object load:731
{ 
     name R5-12-47-4_load_14; 
     parent R5-12-47-4_meter_14; 
     phases CN; 
     voltage_C -3600+6235j; 
     constant_power_C 20000+10000j; 
     nominal_voltage 7200; 
     load_class C; 
} 

object load:732
{ 
     name R5-12-47-4_load_15; 
     parent R5-12-47-4_meter_15; 
     phases ABCN; 
     voltage_A 7200+0.0j; 
     voltage_B -3600-6235j; 
     voltage_C -3600+6235j; 
     constant_power_A 20000+10000j; 
     constant_power_B 20000+10000j; 
     constant_power_C 20000+10000j; 
     nominal_voltage 7200; 
     load_class C; 
} 

object load:733
{ 
     name R5-12-47-4_load_16; 
     parent R5-12-47-4_meter_16; 
     phases ABCN; 
     voltage_A 7200+0.0j; 
     voltage_B -3600-6235j; 
     voltage_C -3600+6235j; 
     constant_power_A 40000+20000j; 
     constant_power_B 40000+20000j; 
     constant_power_C 40000+20000j; 
     nominal_voltage 7200; 
     load_class C; 
} 

object load:734
{ 
     name R5-12-47-4_load_17; 
     parent R5-12-47-4_meter_17; 
     phases BCN; 
     voltage_B -3600-6235j; 
     voltage_C -3600+6235j; 
     constant_power_B 105900+64200j; 
     constant_power_C 33900+20700j; 
     nominal_voltage 7200; 
     load_class C; 
} 

object load:735
{ 
     name R5-12-47-4_load_18; 
     parent R5-12-47-4_meter_18; 
     phases ABCN; 
     voltage_A 7200+0.0j; 
     voltage_B -3600-6235j; 
     voltage_C -3600+6235j; 
     constant_power_A 41256.0939+25147.5158j; 
     constant_power_B 42717.8162+25912.9451j; 
     constant_power_C 41055.4294+25004.1146j; 
     nominal_voltage 7200; 
     load_class C; 
} 

object load:736
{ 
     name R5-12-47-4_load_19; 
     parent R5-12-47-4_meter_19; 
     phases CN; 
     voltage_C -3600+6235j; 
     constant_power_C 2227.149+1356.4074j; 
     nominal_voltage 7200; 
     load_class C; 
} 

object load:737
{ 
     name R5-12-47-4_load_20; 
     parent R5-12-47-4_meter_20; 
     phases ABCN; 
     voltage_A 7200+0.0j; 
     voltage_B -3600-6235j; 
     voltage_C -3600+6235j; 
     constant_power_A 37375.1766+22781.9155j; 
     constant_power_B 38699.3963+23475.3417j; 
     constant_power_C 37193.3884+22652.0039j; 
     nominal_voltage 7200; 
     load_class C; 
} 

object load:738
{ 
     name R5-12-47-4_load_21; 
     parent R5-12-47-4_meter_21; 
     phases ABCN; 
     voltage_A 7200+0.0j; 
     voltage_B -3600-6235j; 
     voltage_C -3600+6235j; 
     constant_power_A 43011.3376+26217.4188j; 
     constant_power_B 44535.249+27015.4133j; 
     constant_power_C 42802.1358+26067.9166j; 
     nominal_voltage 7200; 
     load_class C; 
} 

object load:739
{ 
     name R5-12-47-4_load_22; 
     parent R5-12-47-4_meter_22; 
     phases ABCN; 
     voltage_A 7200+0.0j; 
     voltage_B -3600-6235j; 
     voltage_C -3600+6235j; 
     constant_power_A 17078.2287+10409.9779j; 
     constant_power_B 17683.3181+10726.8323j; 
     constant_power_C 16995.1623+10350.616j; 
     nominal_voltage 7200; 
     load_class C; 
} 

object load:740
{ 
     name R5-12-47-4_load_23; 
     parent R5-12-47-4_meter_23; 
     phases ABCN; 
     voltage_A 7200+0.0j; 
     voltage_B -3600-6235j; 
     voltage_C -3600+6235j; 
     constant_power_A 16785.259+10231.3992j; 
     constant_power_B 17379.9684+10542.8181j; 
     constant_power_C 16703.6175+10173.0556j; 
     nominal_voltage 7200; 
     load_class C; 
} 

object load:741
{ 
     name R5-12-47-4_load_24; 
     parent R5-12-47-4_meter_24; 
     phases ABCN; 
     voltage_A 7200+0.0j; 
     voltage_B -3600-6235j; 
     voltage_C -3600+6235j; 
     constant_power_A 56355.2488+34351.1558j; 
     constant_power_B 58351.9411+35396.7215j; 
     constant_power_C 56081.1438+34155.2717j; 
     nominal_voltage 7200; 
     load_class C; 
} 

object load:742
{ 
     name R5-12-47-4_load_25; 
     parent R5-12-47-4_meter_25; 
     phases CN; 
     voltage_C -3600+6235j; 
     constant_power_C 51107.7668+31126.3206j; 
     nominal_voltage 7200; 
     load_class C; 
} 

object load:743
{ 
     name R5-12-47-4_load_26; 
     parent R5-12-47-4_meter_26; 
     phases ABCN; 
     voltage_A 7200+0.0j; 
     voltage_B -3600-6235j; 
     voltage_C -3600+6235j; 
     constant_power_A 18366.0333+11194.955j; 
     constant_power_B 19016.7503+11535.7022j; 
     constant_power_C 18276.7032+11131.1168j; 
     nominal_voltage 7200; 
     load_class C; 
} 

object load:744
{ 
     name R5-12-47-4_load_27; 
     parent R5-12-47-4_meter_27; 
     phases ABCN; 
     voltage_A 7200+0.0j; 
     voltage_B -3600-6235j; 
     voltage_C -3600+6235j; 
     constant_power_A 8253.8177+5031.0874j; 
     constant_power_B 8546.2543+5184.2214j; 
     constant_power_C 8213.6722+5002.3981j; 
     nominal_voltage 7200; 
     load_class C; 
} 

object load:745
{ 
     name R5-12-47-4_load_28; 
     parent R5-12-47-4_meter_28; 
     phases ABCN; 
     voltage_A 7200+0.0j; 
     voltage_B -3600-6235j; 
     voltage_C -3600+6235j; 
     constant_power_A 47346.1753+28859.7048j; 
     constant_power_B 49023.672+29738.1241j; 
     constant_power_C 47115.8893+28695.1352j; 
     nominal_voltage 7200; 
     load_class C;
} 

object load:746
{ 
     name R5-12-47-4_load_29; 
     parent R5-12-47-4_meter_29; 
     phases ABCN; 
     voltage_A 7200+0.0j; 
     voltage_B -3600-6235j; 
     voltage_C -3600+6235j; 
     constant_power_A 31573.8231+19245.7196j; 
     constant_power_B 32692.4981+19831.5126j; 
     constant_power_C 31420.2519+19135.9728j; 
     nominal_voltage 7200; 
     load_class C; 
} 

object load:747
{ 
     name R5-12-47-4_load_30; 
     parent R5-12-47-4_meter_30; 
     phases ABCN; 
     voltage_A 7200+0.0j; 
     voltage_B -3600-6235j; 
     voltage_C -3600+6235j; 
     constant_power_A 69118.5582+42130.989j; 
     constant_power_B 71567.4605+43413.3539j; 
     constant_power_C 68782.3741+41890.7411j; 
     nominal_voltage 7200; 
     load_class C; 
} 

object load:748
{ 
     name R5-12-47-4_load_31; 
     parent R5-12-47-4_meter_31; 
     phases ABCN; 
     voltage_A 7200+0.0j; 
     voltage_B -3600-6235j; 
     voltage_C -3600+6235j; 
     constant_power_A 5444.1374+3318.456j; 
     constant_power_B 5637.0257+3419.4617j; 
     constant_power_C 5417.6578+3299.5328j; 
     nominal_voltage 7200; 
     load_class C; 
} 

object load:749
{ 
     name R5-12-47-4_load_32; 
     parent R5-12-47-4_meter_32; 
     phases ABCN; 
     voltage_A 7200+0.0j; 
     voltage_B -3600-6235j; 
     voltage_C -3600+6235j; 
     constant_power_A 428670+50j; 
     constant_power_B 428670+50j; 
     constant_power_C 428670+50j; 
     nominal_voltage 7200; 
     load_class R; 
} 

object meter:1275
{ 
     name R5-12-47-4_meter_1; 
     phases ABCN; 
     voltage_A 7200+0.0j; 
     voltage_B -3600-6235j; 
     voltage_C -3600+6235j; 
     nominal_voltage 7200; 
} 

object meter:1276
{ 
     name R5-12-47-4_meter_2; 
     phases ABCN; 
     voltage_A 7200+0.0j; 
     voltage_B -3600-6235j; 
     voltage_C -3600+6235j; 
     nominal_voltage 7200; 
} 

object meter:1277
{ 
     name R5-12-47-4_meter_3; 
     phases CN; 
     voltage_C -3600+6235j; 
     nominal_voltage 7200; 
} 

object meter:1278
{ 
     name R5-12-47-4_meter_4; 
     phases ABCN; 
     voltage_A 7200+0.0j; 
     voltage_B -3600-6235j; 
     voltage_C -3600+6235j; 
     nominal_voltage 7200; 
} 

object meter:1279
{ 
     name R5-12-47-4_meter_5; 
     phases ABCN; 
     voltage_A 7200+0.0j; 
     voltage_B -3600-6235j; 
     voltage_C -3600+6235j; 
     nominal_voltage 7200; 
} 

object meter:1280
{ 
     name R5-12-47-4_meter_6; 
     phases CN; 
     voltage_C -3600+6235j; 
     nominal_voltage 7200; 
} 

object meter:1281
{ 
     name R5-12-47-4_meter_7; 
     phases ABCN; 
     voltage_A 7200+0.0j; 
     voltage_B -3600-6235j; 
     voltage_C -3600+6235j; 
     nominal_voltage 7200; 
} 

object meter:1282
{ 
     name R5-12-47-4_meter_8; 
     phases ABCN; 
     voltage_A 7200+0.0j; 
     voltage_B -3600-6235j; 
     voltage_C -3600+6235j; 
     nominal_voltage 7200; 
} 

object meter:1283
{ 
     name R5-12-47-4_meter_9; 
     phases ABCN; 
     voltage_A 7200+0.0j; 
     voltage_B -3600-6235j; 
     voltage_C -3600+6235j; 
     nominal_voltage 7200; 
} 

object meter:1284
{ 
     name R5-12-47-4_meter_10; 
     phases ABCN; 
     voltage_A 7200+0.0j; 
     voltage_B -3600-6235j; 
     voltage_C -3600+6235j; 
     nominal_voltage 7200; 
} 

object meter:1285
{ 
     name R5-12-47-4_meter_11; 
     phases ABCN; 
     voltage_A 7200+0.0j; 
     voltage_B -3600-6235j; 
     voltage_C -3600+6235j; 
     nominal_voltage 7200; 
} 

object meter:1286
{ 
     name R5-12-47-4_meter_12; 
     phases CN; 
     voltage_C -3600+6235j; 
     nominal_voltage 7200; 
} 

object meter:1287
{ 
     name R5-12-47-4_meter_13; 
     phases ABCN; 
     voltage_A 7200+0.0j; 
     voltage_B -3600-6235j; 
     voltage_C -3600+6235j; 
     nominal_voltage 7200; 
} 

object meter:1288
{ 
     name R5-12-47-4_meter_14; 
     phases CN; 
     voltage_C -3600+6235j; 
     nominal_voltage 7200; 
} 

object meter:1289
{ 
     name R5-12-47-4_meter_15; 
     phases ABCN; 
     voltage_A 7200+0.0j; 
     voltage_B -3600-6235j; 
     voltage_C -3600+6235j; 
     nominal_voltage 7200; 
} 

object meter:1290
{ 
     name R5-12-47-4_meter_16; 
     phases ABCN; 
     voltage_A 7200+0.0j; 
     voltage_B -3600-6235j; 
     voltage_C -3600+6235j; 
     nominal_voltage 7200; 
} 

object meter:1291
{ 
     name R5-12-47-4_meter_17; 
     phases BCN; 
     voltage_B -3600-6235j; 
     voltage_C -3600+6235j; 
     nominal_voltage 7200; 
} 

object meter:1292
{ 
     name R5-12-47-4_meter_18; 
     phases ABCN; 
     voltage_A 7200+0.0j; 
     voltage_B -3600-6235j; 
     voltage_C -3600+6235j; 
     nominal_voltage 7200; 
} 

object meter:1293
{ 
     name R5-12-47-4_meter_19; 
     phases CN; 
     voltage_C -3600+6235j; 
     nominal_voltage 7200; 
} 

object meter:1294
{ 
     name R5-12-47-4_meter_20; 
     phases ABCN; 
     voltage_A 7200+0.0j; 
     voltage_B -3600-6235j; 
     voltage_C -3600+6235j; 
     nominal_voltage 7200; 
} 

object meter:1295
{ 
     name R5-12-47-4_meter_21; 
     phases ABCN; 
     voltage_A 7200+0.0j; 
     voltage_B -3600-6235j; 
     voltage_C -3600+6235j; 
     nominal_voltage 7200; 
} 

object meter:1296
{ 
     name R5-12-47-4_meter_22; 
     phases ABCN; 
     voltage_A 7200+0.0j; 
     voltage_B -3600-6235j; 
     voltage_C -3600+6235j; 
     nominal_voltage 7200; 
} 

object meter:1297
{ 
     name R5-12-47-4_meter_23; 
     phases ABCN; 
     voltage_A 7200+0.0j; 
     voltage_B -3600-6235j; 
     voltage_C -3600+6235j; 
     nominal_voltage 7200; 
} 

object meter:1298
{ 
     name R5-12-47-4_meter_24; 
     phases ABCN; 
     voltage_A 7200+0.0j; 
     voltage_B -3600-6235j; 
     voltage_C -3600+6235j; 
     nominal_voltage 7200; 
} 

object meter:1299
{ 
     name R5-12-47-4_meter_25; 
     phases CN; 
     voltage_C -3600+6235j; 
     nominal_voltage 7200; 
} 

object meter:1300
{ 
     name R5-12-47-4_meter_26; 
     phases ABCN; 
     voltage_A 7200+0.0j; 
     voltage_B -3600-6235j; 
     voltage_C -3600+6235j; 
     nominal_voltage 7200; 
} 

object meter:1301
{ 
     name R5-12-47-4_meter_27; 
     phases ABCN; 
     voltage_A 7200+0.0j; 
     voltage_B -3600-6235j; 
     voltage_C -3600+6235j; 
     nominal_voltage 7200; 
} 

object meter:1302
{ 
     name R5-12-47-4_meter_28; 
     phases ABCN; 
     voltage_A 7200+0.0j; 
     voltage_B -3600-6235j; 
     voltage_C -3600+6235j; 
     nominal_voltage 7200; 
} 

object meter:1303
{ 
     name R5-12-47-4_meter_29; 
     phases ABCN; 
     voltage_A 7200+0.0j; 
     voltage_B -3600-6235j; 
     voltage_C -3600+6235j; 
     nominal_voltage 7200; 
} 

object meter:1304
{ 
     name R5-12-47-4_meter_30; 
     phases ABCN; 
     voltage_A 7200+0.0j; 
     voltage_B -3600-6235j; 
     voltage_C -3600+6235j; 
     nominal_voltage 7200; 
} 

object meter:1305
{ 
     name R5-12-47-4_meter_31; 
     phases ABCN; 
     voltage_A 7200+0.0j; 
     voltage_B -3600-6235j; 
     voltage_C -3600+6235j; 
     nominal_voltage 7200; 

} 

object meter:1306
{ 
     name R5-12-47-4_meter_32; 
     phases ABCN; 
     voltage_A 7200+0.0j; 
     voltage_B -3600-6235j; 
     voltage_C -3600+6235j; 
     nominal_voltage 7200; 
} 

// Meter at feeder 
object meter:2420
{ 
     name R5-12-47-4_meter_33; 
     phases ABCN; 
     nominal_voltage 7200; 
     voltage_A 7200+0.0j; 
     voltage_B -3600-6235j; 
     voltage_C -3600+6235j; 
} 

object node:44
{ 
     name R5-12-47-4_node_1; 
     parent R5-12-47-4_meter_33; 
     phases ABCN; 
     voltage_A 7200+0.0j; 
     voltage_B -3600-6235j; 
     voltage_C -3600+6235j; 
     nominal_voltage 7200; 
} 

object node:45
{ 
     name R5-12-47-4_node_2; 
     phases ABCN; 
     voltage_A 7200+0.0j; 
     voltage_B -3600-6235j; 
     voltage_C -3600+6235j; 
     nominal_voltage 7200; 
} 

object node:46
{ 
     name R5-12-47-4_node_3; 
     phases ABCN; 
     voltage_A 7200+0.0j; 
     voltage_B -3600-6235j; 
     voltage_C -3600+6235j; 
     nominal_voltage 7200; 
} 

object node:47
{ 
     name R5-12-47-4_node_4; 
     phases ABCN; 
     voltage_A 7200+0.0j; 
     voltage_B -3600-6235j; 
     voltage_C -3600+6235j; 
     nominal_voltage 7200; 
} 

object node:48
{ 
     name R5-12-47-4_node_5; 
     phases ABCN; 
     voltage_A 7200+0.0j; 
     voltage_B -3600-6235j; 
     voltage_C -3600+6235j; 
     nominal_voltage 7200; 
} 

object node:49
{ 
     name R5-12-47-4_node_6; 
     phases ABCN; 
     voltage_A 7200+0.0j; 
     voltage_B -3600-6235j; 
     voltage_C -3600+6235j; 
     nominal_voltage 7200; 
} 

object node:50
{ 
     name R5-12-47-4_node_7; 
     phases ABCN; 
     voltage_A 7200+0.0j; 
     voltage_B -3600-6235j; 
     voltage_C -3600+6235j; 
     nominal_voltage 7200; 
} 

object node:51
{ 
     name R5-12-47-4_node_8; 
     phases ABCN; 
     voltage_A 7200+0.0j; 
     voltage_B -3600-6235j; 
     voltage_C -3600+6235j; 
     nominal_voltage 7200; 
} 

object node:52
{ 
     name R5-12-47-4_node_9; 
     phases ABCN; 
     voltage_A 7200+0.0j; 
     voltage_B -3600-6235j; 
     voltage_C -3600+6235j; 
     nominal_voltage 7200; 
} 

object node:53
{ 
     name R5-12-47-4_node_10; 
     phases ABCN; 
     voltage_A 7200+0.0j; 
     voltage_B -3600-6235j; 
     voltage_C -3600+6235j; 
     nominal_voltage 7200; 
} 

object node:54
{ 
     name R5-12-47-4_node_11; 
     phases BN; 
     voltage_B -3600-6235j; 
     nominal_voltage 7200; 
} 

object node:55
{ 
     name R5-12-47-4_node_12; 
     phases CN; 
     voltage_C -3600+6235j; 
     nominal_voltage 7200; 
} 

object node:56
{ 
     name R5-12-47-4_node_13; 
     phases ABCN; 
     voltage_A 7200+0.0j; 
     voltage_B -3600-6235j; 
     voltage_C -3600+6235j; 
     nominal_voltage 7200; 
} 

object node:57
{ 
     name R5-12-47-4_node_14; 
     phases ABCN; 
     voltage_A 7200+0.0j; 
     voltage_B -3600-6235j; 
     voltage_C -3600+6235j; 
     nominal_voltage 7200; 
} 

object node:58
{ 
     name R5-12-47-4_node_15; 
     phases CN; 
     voltage_C -3600+6235j; 
     nominal_voltage 7200; 
} 

object node:59
{ 
     name R5-12-47-4_node_16; 
     phases ABCN; 
     voltage_A 7200+0.0j; 
     voltage_B -3600-6235j; 
     voltage_C -3600+6235j; 
     nominal_voltage 7200; 
} 

object node:60
{ 
     name R5-12-47-4_node_17; 
     phases BN; 
     voltage_B -3600-6235j; 
     nominal_voltage 7200; 
} 

object node:61
{ 
     name R5-12-47-4_node_18; 
     phases AN; 
     voltage_A 7200+0.0j; 
     nominal_voltage 7200; 
} 

object node:62
{ 
     name R5-12-47-4_node_19; 
     phases ABCN; 
     voltage_A 7200+0.0j; 
     voltage_B -3600-6235j; 
     voltage_C -3600+6235j; 
     nominal_voltage 7200; 
} 

object node:63
{ 
     name R5-12-47-4_node_20; 
     phases ABCN; 
     voltage_A 7200+0.0j; 
     voltage_B -3600-6235j; 
     voltage_C -3600+6235j; 
     nominal_voltage 7200; 
} 

object node:64
{ 
     name R5-12-47-4_node_21; 
     phases ABCN; 
     voltage_A 7200+0.0j; 
     voltage_B -3600-6235j; 
     voltage_C -3600+6235j; 
     nominal_voltage 7200; 
} 

object node:65
{ 
     name R5-12-47-4_node_22; 
     phases CN; 
     voltage_C -3600+6235j; 
     nominal_voltage 7200; 
} 

object node:66
{ 
     name R5-12-47-4_node_23; 
     phases CN; 
     voltage_C -3600+6235j; 
     nominal_voltage 7200; 
} 

object node:67
{ 
     name R5-12-47-4_node_24; 
     phases CN; 
     voltage_C -3600+6235j; 
     nominal_voltage 7200; 
} 

object node:68
{ 
     name R5-12-47-4_node_25; 
     phases ABCN; 
     voltage_A 7200+0.0j; 
     voltage_B -3600-6235j; 
     voltage_C -3600+6235j; 
     nominal_voltage 7200; 
} 

object node:69
{ 
     name R5-12-47-4_node_26; 
     phases ABCN; 
     voltage_A 7200+0.0j; 
     voltage_B -3600-6235j; 
     voltage_C -3600+6235j; 
     nominal_voltage 7200; 
} 

object node:70
{ 
     name R5-12-47-4_node_27; 
     phases ABCN; 
     voltage_A 7200+0.0j; 
     voltage_B -3600-6235j; 
     voltage_C -3600+6235j; 
     nominal_voltage 7200; 
} 

object node:71
{ 
     name R5-12-47-4_node_28; 
     phases ABCN; 
     voltage_A 7200+0.0j; 
     voltage_B -3600-6235j; 
     voltage_C -3600+6235j; 
     nominal_voltage 7200; 
} 

object node:72
{ 
     name R5-12-47-4_node_29; 
     phases ABCN; 
     voltage_A 7200+0.0j; 
     voltage_B -3600-6235j; 
     voltage_C -3600+6235j; 
     nominal_voltage 7200; 
} 

object node:73
{ 
     name R5-12-47-4_node_30; 
     phases ABCN; 
     voltage_A 7200+0.0j; 
     voltage_B -3600-6235j; 
     voltage_C -3600+6235j; 
     nominal_voltage 7200; 
} 

object node:74
{ 
     name R5-12-47-4_node_31; 
     phases BN; 
     voltage_B -3600-6235j; 
     nominal_voltage 7200; 
} 

object node:75
{ 
     name R5-12-47-4_node_32; 
     phases CN; 
     voltage_C -3600+6235j; 
     nominal_voltage 7200; 
} 

object node:76
{ 
     name R5-12-47-4_node_33; 
     phases AN; 
     voltage_A 7200+0.0j; 
     nominal_voltage 7200; 
} 

object node:77
{ 
     name R5-12-47-4_node_34; 
     phases BN; 
     voltage_B -3600-6235j; 
     nominal_voltage 7200; 
} 

object node:78
{ 
     name R5-12-47-4_node_35; 
     phases AN; 
     voltage_A 7200+0.0j; 
     nominal_voltage 7200; 
} 

object node:79
{ 
     name R5-12-47-4_node_36; 
     phases AN; 
     voltage_A 7200+0.0j; 
     nominal_voltage 7200; 
} 

object node:80
{ 
     name R5-12-47-4_node_37; 
     phases CN; 
     voltage_C -3600+6235j; 
     nominal_voltage 7200; 
} 

object node:81
{ 
     name R5-12-47-4_node_38; 
     phases AN; 
     voltage_A 7200+0.0j; 
     nominal_voltage 7200; 
} 

object node:82
{ 
     name R5-12-47-4_node_39; 
     phases AN; 
     voltage_A 7200+0.0j; 
     nominal_voltage 7200; 
} 

object node:83
{ 
     name R5-12-47-4_node_40; 
     phases CN; 
     voltage_C -3600+6235j; 
     nominal_voltage 7200; 
} 

object node:84
{ 
     name R5-12-47-4_node_41; 
     phases AN; 
     voltage_A 7200+0.0j; 
     nominal_voltage 7200; 
} 

object node:85
{ 
     name R5-12-47-4_node_42; 
     phases CN; 
     voltage_C -3600+6235j; 
     nominal_voltage 7200; 
} 

object node:86
{ 
     name R5-12-47-4_node_43; 
     phases CN; 
     voltage_C -3600+6235j; 
     nominal_voltage 7200; 
} 

object node:87
{ 
     name R5-12-47-4_node_44; 
     phases AN; 
     voltage_A 7200+0.0j; 
     nominal_voltage 7200; 
} 

object node:88
{ 
     name R5-12-47-4_node_45; 
     phases AN; 
     voltage_A 7200+0.0j; 
     nominal_voltage 7200; 
} 

object node:89
{ 
     name R5-12-47-4_node_46; 
     phases BN; 
     voltage_B -3600-6235j; 
     nominal_voltage 7200; 
} 

object node:90
{ 
     name R5-12-47-4_node_47; 
     phases BN; 
     voltage_B -3600-6235j; 
     nominal_voltage 7200; 
} 

object node:91
{ 
     name R5-12-47-4_node_48; 
     phases AN; 
     voltage_A 7200+0.0j; 
     nominal_voltage 7200; 
} 

object node:92
{ 
     name R5-12-47-4_node_49; 
     phases BN; 
     voltage_B -3600-6235j; 
     nominal_voltage 7200; 
} 

object node:93
{ 
     name R5-12-47-4_node_50; 
     phases AN; 
     voltage_A 7200+0.0j; 
     nominal_voltage 7200; 
} 

object node:94
{ 
     name R5-12-47-4_node_51; 
     phases BN; 
     voltage_B -3600-6235j; 
     nominal_voltage 7200; 
} 

object node:95
{ 
     name R5-12-47-4_node_52; 
     phases CN; 
     voltage_C -3600+6235j; 
     nominal_voltage 7200; 
} 

object node:96
{ 
     name R5-12-47-4_node_53; 
     phases ABCN; 
     voltage_A 7200+0.0j; 
     voltage_B -3600-6235j; 
     voltage_C -3600+6235j; 
     nominal_voltage 7200; 
} 

object node:97
{ 
     name R5-12-47-4_node_54; 
     phases CN; 
     voltage_C -3600+6235j; 
     nominal_voltage 7200; 
} 

object node:98
{ 
     name R5-12-47-4_node_55; 
     phases ABCN; 
     voltage_A 7200+0.0j; 
     voltage_B -3600-6235j; 
     voltage_C -3600+6235j; 
     nominal_voltage 7200; 
} 

object node:99
{ 
     name R5-12-47-4_node_56; 
     phases BN; 
     voltage_B -3600-6235j; 
     nominal_voltage 7200; 
} 

object node:100
{ 
     name R5-12-47-4_node_57; 
     phases AN; 
     voltage_A 7200+0.0j; 
     nominal_voltage 7200; 
} 

object node:101
{ 
     name R5-12-47-4_node_58; 
     phases ABCN; 
     voltage_A 7200+0.0j; 
     voltage_B -3600-6235j; 
     voltage_C -3600+6235j; 
     nominal_voltage 7200; 
} 

object node:102
{ 
     name R5-12-47-4_node_59; 
     phases ABCN; 
     voltage_A 7200+0.0j; 
     voltage_B -3600-6235j; 
     voltage_C -3600+6235j; 
     nominal_voltage 7200; 
} 

object node:103
{ 
     name R5-12-47-4_node_60; 
     phases CN; 
     voltage_C -3600+6235j; 
     nominal_voltage 7200; 
} 

object node:104
{ 
     name R5-12-47-4_node_61; 
     phases CN; 
     voltage_C -3600+6235j; 
     nominal_voltage 7200; 
} 

object node:105
{ 
     name R5-12-47-4_node_62; 
     phases CN; 
     voltage_C -3600+6235j; 
     nominal_voltage 7200; 
} 

object node:106
{ 
     name R5-12-47-4_node_63; 
     phases AN; 
     voltage_A 7200+0.0j; 
     nominal_voltage 7200; 
} 

object node:107
{ 
     name R5-12-47-4_node_64; 
     phases AN; 
     voltage_A 7200+0.0j; 
     nominal_voltage 7200; 
} 

object node:108
{ 
     name R5-12-47-4_node_65; 
     phases BN; 
     voltage_B -3600-6235j; 
     nominal_voltage 7200; 
} 

object node:109
{ 
     name R5-12-47-4_node_66; 
     phases AN; 
     voltage_A 7200+0.0j; 
     nominal_voltage 7200; 
} 

object node:110
{ 
     name R5-12-47-4_node_67; 
     phases AN; 
     voltage_A 7200+0.0j; 
     nominal_voltage 7200; 
} 

object node:111
{ 
     name R5-12-47-4_node_68; 
     phases ABCN; 
     voltage_A 7200+0.0j; 
     voltage_B -3600-6235j; 
     voltage_C -3600+6235j; 
     nominal_voltage 7200; 
} 

object node:112
{ 
     name R5-12-47-4_node_69; 
     phases BN; 
     voltage_B -3600-6235j; 
     nominal_voltage 7200; 
} 

object node:113
{ 
     name R5-12-47-4_node_70; 
     phases CN; 
     voltage_C -3600+6235j; 
     nominal_voltage 7200; 
} 

object node:114
{ 
     name R5-12-47-4_node_71; 
     phases CN; 
     voltage_C -3600+6235j; 
     nominal_voltage 7200; 
} 

object node:115
{ 
     name R5-12-47-4_node_72; 
     phases ABCN; 
     voltage_A 7200+0.0j; 
     voltage_B -3600-6235j; 
     voltage_C -3600+6235j; 
     nominal_voltage 7200; 
} 

object node:116
{ 
     name R5-12-47-4_node_73; 
     phases ABCN; 
     voltage_A 7200+0.0j; 
     voltage_B -3600-6235j; 
     voltage_C -3600+6235j; 
     nominal_voltage 7200; 
} 

object node:117
{ 
     name R5-12-47-4_node_74; 
     phases BN; 
     voltage_B -3600-6235j; 
     nominal_voltage 7200; 
} 

object node:118
{ 
     name R5-12-47-4_node_75; 
     phases CN; 
     voltage_C -3600+6235j; 
     nominal_voltage 7200; 
} 

object node:119
{ 
     name R5-12-47-4_node_76; 
     phases AN; 
     voltage_A 7200+0.0j; 
     nominal_voltage 7200; 
} 

object node:120
{ 
     name R5-12-47-4_node_77; 
     phases AN; 
     voltage_A 7200+0.0j; 
     nominal_voltage 7200; 
} 

object node:121
{ 
     name R5-12-47-4_node_78; 
     phases ABCN; 
     voltage_A 7200+0.0j; 
     voltage_B -3600-6235j; 
     voltage_C -3600+6235j; 
     nominal_voltage 7200; 
} 

object node:122
{ 
     name R5-12-47-4_node_79; 
     phases ABCN; 
     voltage_A 7200+0.0j; 
     voltage_B -3600-6235j; 
     voltage_C -3600+6235j; 
     nominal_voltage 7200; 
} 

object node:123
{ 
     name R5-12-47-4_node_80; 
     phases ABCN; 
     voltage_A 7200+0.0j; 
     voltage_B -3600-6235j; 
     voltage_C -3600+6235j; 
     nominal_voltage 7200; 
} 

object node:124
{ 
     name R5-12-47-4_node_81; 
     phases ABCN; 
     voltage_A 7200+0.0j; 
     voltage_B -3600-6235j; 
     voltage_C -3600+6235j; 
     nominal_voltage 7200; 
} 

object node:125
{ 
     name R5-12-47-4_node_82; 
     phases ABCN; 
     voltage_A 7200+0.0j; 
     voltage_B -3600-6235j; 
     voltage_C -3600+6235j; 
     nominal_voltage 7200; 
} 

object node:126
{ 
     name R5-12-47-4_node_83; 
     phases ABCN; 
     voltage_A 7200+0.0j; 
     voltage_B -3600-6235j; 
     voltage_C -3600+6235j; 
     nominal_voltage 7200; 
} 

object node:127
{ 
     name R5-12-47-4_node_84; 
     phases ABCN; 
     voltage_A 7200+0.0j; 
     voltage_B -3600-6235j; 
     voltage_C -3600+6235j; 
     nominal_voltage 7200; 
} 

object node:128
{ 
     name R5-12-47-4_node_85; 
     phases ABCN; 
     voltage_A 7200+0.0j; 
     voltage_B -3600-6235j; 
     voltage_C -3600+6235j; 
     nominal_voltage 7200; 
} 

object node:129
{ 
     name R5-12-47-4_node_86; 
     phases ABCN; 
     voltage_A 7200+0.0j; 
     voltage_B -3600-6235j; 
     voltage_C -3600+6235j; 
     nominal_voltage 7200; 
} 

object node:130
{ 
     name R5-12-47-4_node_87; 
     phases AN; 
     voltage_A 7200+0.0j; 
     nominal_voltage 7200; 
} 

object node:131
{ 
     name R5-12-47-4_node_88; 
     phases BN; 
     voltage_B -3600-6235j; 
     nominal_voltage 7200; 
} 

object node:132
{ 
     name R5-12-47-4_node_89; 
     phases ABCN; 
     voltage_A 7200+0.0j; 
     voltage_B -3600-6235j; 
     voltage_C -3600+6235j; 
     nominal_voltage 7200; 
} 

object node:133
{ 
     name R5-12-47-4_node_90; 
     phases BN; 
     voltage_B -3600-6235j; 
     nominal_voltage 7200; 
} 

object node:134
{ 
     name R5-12-47-4_node_91; 
     phases CN; 
     voltage_C -3600+6235j; 
     nominal_voltage 7200; 
} 

object node:135
{ 
     name R5-12-47-4_node_92; 
     phases BN; 
     voltage_B -3600-6235j; 
     nominal_voltage 7200; 
} 

object node:136
{ 
     name R5-12-47-4_node_93; 
     phases ABCN; 
     voltage_A 7200+0.0j; 
     voltage_B -3600-6235j; 
     voltage_C -3600+6235j; 
     nominal_voltage 7200; 
} 

object node:137
{ 
     name R5-12-47-4_node_94; 
     phases ABCN; 
     voltage_A 7200+0.0j; 
     voltage_B -3600-6235j; 
     voltage_C -3600+6235j; 
     nominal_voltage 7200; 
} 

object node:138
{ 
     name R5-12-47-4_node_95; 
     phases CN; 
     voltage_C -3600+6235j; 
     nominal_voltage 7200; 
} 

object node:139
{ 
     name R5-12-47-4_node_96; 
     phases ABCN; 
     voltage_A 7200+0.0j; 
     voltage_B -3600-6235j; 
     voltage_C -3600+6235j; 
     nominal_voltage 7200;
} 

object node:140
{ 
     name R5-12-47-4_node_97; 
     phases BN; 
     voltage_B -3600-6235j; 
     nominal_voltage 7200; 
} 

object node:141
{ 
     name R5-12-47-4_node_98; 
     phases AN; 
     voltage_A 7200+0.0j; 
     nominal_voltage 7200; 
} 

object node:142
{ 
     name R5-12-47-4_node_99; 
     phases ABCN; 
     voltage_A 7200+0.0j; 
     voltage_B -3600-6235j; 
     voltage_C -3600+6235j; 
     nominal_voltage 7200; 
} 

object node:143
{ 
     name R5-12-47-4_node_100; 
     phases ABCN; 
     voltage_A 7200+0.0j; 
     voltage_B -3600-6235j; 
     voltage_C -3600+6235j; 
     nominal_voltage 7200; 
} 

object node:144
{ 
     name R5-12-47-4_node_101; 
     phases CN; 
     voltage_C -3600+6235j; 
     nominal_voltage 7200; 
} 

object node:145
{ 
     name R5-12-47-4_node_102; 
     phases BN; 
     voltage_B -3600-6235j; 
     nominal_voltage 7200; 
} 

object node:146
{ 
     name R5-12-47-4_node_103; 
     phases CN; 
     voltage_C -3600+6235j; 
     nominal_voltage 7200; 
} 

object node:147
{ 
     name R5-12-47-4_node_104; 
     phases CN; 
     voltage_C -3600+6235j; 
     nominal_voltage 7200; 
} 

object node:148
{ 
     name R5-12-47-4_node_105; 
     phases CN; 
     voltage_C -3600+6235j; 
     nominal_voltage 7200; 
} 

object node:149
{ 
...